12
initial chain E = 11.947426 meV
  B    8.00000    0.10000    0.00000    1.95825    0.00000    0.00000
  B    6.00000    0.00000    0.00000   -1.22485    0.00000    0.00000
  B    4.00000    0.00000    0.10000    1.77556    0.00000    0.00000
  B    2.00000    0.00000    0.00000   -1.33405    0.00000    0.00000
  B    0.00000    0.00000    0.00000    1.63048    0.00000    0.00000
  B   -2.00000    0.10000    0.00000    0.00000    0.00000    0.00000
  B   -4.00000    0.00000    0.00000    1.29224    0.00000    0.00000
  B   -6.00000    0.00000    0.00000   -1.13765    0.00000    0.00000
  B   -8.00000    0.00000    0.00000    1.24603    0.00000    0.00000
  B  -10.00000    0.00000    0.00000   -1.19886    0.00000    0.00000
  B  -12.00000    0.00000    0.10000    1.87045    0.00000    0.00000
  B  -14.00000    0.00000    0.00000   -1.23129    0.00000    0.00000
