92  
# Atomi sulla superficie sferica
O 40.6839 25.1104 15.5075
O 13.7656 21.4529 10.3759
O 39.4219 33.5885 16.1141
O 25.6846 16.1818 16.2929
O 26.0358 39.9983 5.94301
O 11.9823 22.3933 15.0516
O 20.8177 33.3749 25.424
O 39.1186 33.83 11.6943
O 35.1268 26.604 16.3981
O 33.4089 14.6851 6.24398
O 22.9096 19.4879 25.5592
O 18.6778 29.1415 6.0833
O 24.7112 43.478 17.9413
O 30.3208 37.0139 21.9992
O 40.0915 37.857 12.6624
O 13.1174 24.2629 10.9187
O 30.73 34.8952 24.1982
O 16.1855 27.7557 6.03896
O 21.5175 35.5543 23.8383
O 35.8811 41.9107 9.21117
O 37.9896 38.2451 10.5825
O 27.7702 15.7586 12.3777
O 27.3331 43.6572 11.2245
O 33.2508 29.4251 18.9535
O 33.3045 11.5599 10.6309
O 12.8108 34.4956 10.9561
O 23.7412 16.9873 18.6807
O 26.6249 42.5311 16.0565
O 15.8632 40.954 15.5897
O 13.716 19.2712 6.62599
O 40.7674 26.4609 8.79351
O 33.1035 34.0131 6.18488
O 16.1532 18.6306 19.2431
O 35.9141 22.999 6.62602
O 15.8157 33.6489 5.84754
O 20.2075 30.4428 25.2167
O 28.5693 28.6423 5.95402
O 34.883 27.314 6.27369
O 39.5205 32.2221 18.593
O 36.4239 20.8892 20.9021
O 11.9172 21.6227 6.12001
O 14.4682 18.8067 11.1882
O 35.038 36.0195 6.12639
O 30.3827 40.2007 16.8611
O 38.768 28.7482 17.2842
O 13.5568 41.0426 9.87736
O 17.1716 15.1468 7.58907
O 29.0628 42.2639 6.36421
O 17.0046 32.9572 19.1166
O 30.7281 42.5367 15.3842
O 27.9274 25.3877 27.4319
O 33.7048 44.819 12.4357
O 39.421 36.363 7.03673
O 20.1304 20.5681 25.9312
O 32.2799 18.9992 24.1891
O 17.1729 25.2091 6.33635
O 17.8873 16.7321 13.1465
O 27.7882 33.6241 26.724
O 14.0173 32.3318 15.6309
O 23.8746 16.2943 11.226
O 15.243 18.4114 16.7116
O 25.1252 14.7166 13.1333
O 37.1212 30.0598 21.6602
O 14.2405 38.7343 8.4334
O 38.6279 23.3527 6.51865
O 33.2961 42.1955 14.3788
O 17.9047 41.3617 8.96164
O 13.236 23.9839 6.90647
O 23.4569 41.2126 19.0625
O 28.9105 44.1945 16.8529
O 35.4877 16.4572 6.77251
O 13.2685 21.6352 19.5056
O 34.73 26.7499 26.7387
O 37.4828 34.4811 6.26787
O 31.9676 13.1657 13.3234
O 36.8705 22.3001 14.6476
O 34.2655 21.1048 22.9747
O 38.4148 21.9089 19.2637
O 13.7211 39.0482 14.3278
O 22.9202 31.1668 24.2702
O 25.5841 38.9565 20.0498
O 13.0673 26.6767 6.20616
O 20.8804 25.5881 26.6995
O 14.8485 16.8443 7.3767
O 25.2446 31.6194 20.4415
O 27.643 37.1237 21.3991
O 20.1051 41.2141 12.7398
O 24.7978 29.5854 25.7335
O 19.9013 14.6871 8.61325
O 12.473 24.1272 20.1185
O 14.0939 25.0233 22.2323
O 13.1758 30.9787 7.51857
