65  
# Atomi sulla superficie sferica
O 19.8841 30.6595 18.8765
O 39.9451 25.0303 12.6132
O 38.6327 34.919 17.559
O 25.7551 15.7313 15.9423
O 18.7004 23.3211 25.2647
O 16.6818 17.9976 14.984
O 25.542 41.3666 6.31085
O 13.6975 23.0957 13.4409
O 24.6717 27.3313 19.5814
O 20.4424 31.74 26.1738
O 33.9722 15.4835 6.3959
O 24.0801 43.0153 15.6406
O 15.9996 28.1055 21.8418
O 30.863 34.5047 25.789
O 39.5081 31.9164 7.4377
O 37.9845 41.852 8.90048
O 32.0486 16.2017 18.1058
O 27.4789 45.1916 13.121
O 28.4272 12.0672 10.6855
O 12.7162 32.7103 12.5967
O 22.9393 15.9819 17.1143
O 26.3778 44.6138 15.5157
O 15.1462 40.7896 15.4812
O 41.7101 26.7485 10.8219
O 14.6818 21.0993 18.799
O 36.062 23.4396 6.69281
O 26.1585 35.2887 14.9293
O 20.0099 16.4063 8.05737
O 12.745 26.5707 15.6579
O 19.6153 29.0622 27.0523
O 14.8078 30.2741 22.8662
O 14.2147 41.3185 10.3782
O 16.9203 16.0487 8.2189
O 28.3264 41.8433 7.03488
O 17.1386 33.9594 19.987
O 30.6325 42.4451 16.1695
O 27.621 25.2006 27.9991
O 27.6924 21.0155 24.0978
O 39.1404 34.2716 6.33621
O 19.4764 20.8846 24.8239
O 15.274 16.624 13.019
O 34.1764 14.5358 9.22715
O 33.9212 19.6979 6.04267
O 35.4745 17.5857 11.5999
O 23.3867 15.9801 11.4091
O 37.2104 29.4399 22.2256
O 25.1952 23.9267 27.4966
O 14.4739 38.6263 9.17002
O 38.8092 23.9485 6.1188
O 27.8411 42.4589 17.0542
O 36.0844 17.6745 6.30921
O 18.954 33.309 22.0268
O 19.3375 15.8801 12.4385
O 33.2729 26.2786 27.9819
O 31.1175 12.9917 12.3263
O 19.9921 38.9561 6.21298
O 38.7244 21.1582 18.379
O 33.9291 36.89 16.1229
O 27.7381 37.8953 22.5172
O 21.5246 26.6984 27.0778
O 16.4023 24.504 23.7775
O 20.9868 15.0884 10.1425
O 28.1777 19.2021 5.84711
O 11.6371 27.0717 21.0324
O 38.5985 26.7421 5.87216
