85  
# Atomi sulla superficie sferica
O 38.7795 34.7017 17.0609
O 31.3085 22.7082 22.8132
O 30.2952 36.8091 20.8075
O 24.7733 40.6232 6.22526
O 17.6563 35.2963 21.1143
O 26.359 36.9236 6.05267
O 32.4251 15.1449 6.71676
O 32.9559 40.3696 8.9125
O 26.284 41.4168 11.3222
O 33.6962 40.262 13.9706
O 21.5684 21.3929 25.8874
O 24.3002 43.4325 15.8368
O 23.642 30.9523 6.66858
O 30.1348 35.6999 24.9197
O 14.5404 25.9735 11.1032
O 15.577 29.5751 6.12878
O 22.3224 33.4954 27.4234
O 36.277 41.4162 6.25205
O 29.4807 15.7258 17.6324
O 39.1049 40.7514 6.29416
O 27.1124 15.7451 11.1923
O 40.1742 36.302 9.35163
O 35.8227 16.1948 9.19958
O 21.1705 25.3972 7.93554
O 10.4515 25.5073 13.1401
O 28.6791 11.9366 11.1975
O 37.1462 31.3484 6.49336
O 22.2839 16.4555 17.2622
O 23.0521 19.584 6.24229
O 26.7686 44.8068 15.7424
O 15.5653 40.5438 13.642
O 34.6146 32.1326 6.28485
O 30.8076 17.8025 19.2204
O 41.9649 31.5705 10.8382
O 21.941 28.8387 5.89618
O 13.0216 21.5296 18.5972
O 26.1607 17.3104 6.95305
O 15.0981 37.5294 8.33483
O 12.5704 27.0249 14.847
O 17.8838 28.7504 26.1421
O 10.7418 22.9776 6.34362
O 33.8235 36.7549 6.2895
O 30.491 33.0976 26.7428
O 11.7439 29.6347 20.8908
O 38.555 27.6002 17.592
O 12.5483 40.5219 10.2704
O 26.5399 43.0079 6.20934
O 28.7641 26.5368 27.5416
O 33.6663 42.8007 10.8722
O 18.734 37.1637 17.3803
O 18.0981 21.5918 25.0253
O 31.0056 17.5356 22.2074
O 29.3672 23.6768 7.28241
O 27.749 36.8442 25.4672
O 16.234 26.938 6.31862
O 27.1351 35.8278 11.7962
O 14.344 17.6349 12.9293
O 33.5444 14.0093 8.8445
O 17.5316 41.416 7.79122
O 34.8782 17.4716 11.6937
O 16.6292 39.4963 15.801
O 35.7455 41.2122 9.90577
O 37.927 27.7939 22.7728
O 25.6785 23.7921 26.5873
O 33.112 42.8835 13.5341
O 34.467 18.2827 16.9141
O 28.5615 40.8484 6.21921
O 18.1752 21.2701 22.0792
O 17.4423 32.3806 21.5885
O 34.0811 26.7343 28.5915
O 22.7026 42.4022 6.48289
O 27.8087 25.7398 6.80796
O 30.6689 11.93 12.996
O 34.8567 20.0153 21.0029
O 38.716 23.3831 18.3492
O 12.2487 28.1289 6.35846
O 20.2284 27.6617 27.9676
O 18.724 26.8841 7.36945
O 19.8599 41.8254 14.317
O 18.3302 19.5863 20.0611
O 23.7177 29.652 27.9898
O 20.2532 15.1886 9.38083
O 27.612 19.5781 6.14047
O 23.3956 42.8514 11.132
O 39.6291 25.9571 6.26068
