152
 catena in solvente
  B   -4.00000   -4.10000   -4.00000    0.93825    0.00000    0.00000
  B   -4.00000   -4.00000   -2.00000   -0.22485    0.00000    0.00000
  B   -4.00000   -2.00000   -2.10000    0.74556    1.00000    0.00000
  B   -2.00000   -2.00000   -2.00000   -0.33405    0.00000    0.00000
  B   -2.00000   -2.00000    0.00000    0.63048    0.00000    0.00000
  B   -2.00000    0.10000    0.00000    0.00000    0.00000    0.00000
  B    0.00000    0.00000    0.00000    0.29224    0.00000    0.00000
  B    0.00000    2.00000    0.00000   -0.11765    0.00000    1.00000
  B    2.00000    2.00000    0.00000    0.24603    0.00000    0.00000
  B    2.00000    2.00000    2.00000   -0.19886    0.00000    0.00000
  B    4.00000    2.00000    2.10000    0.82045    0.00000    0.00000
  B    4.00000    2.00000    4.00000   -0.23129    0.00000    0.00000
  S   -1.40905    0.52485    0.79430   -0.00948    0.03748   -0.08007
  S    0.30808    2.57294   -1.95705    0.09845    0.01539    0.07552
  S    2.47809    1.28910   -4.64579    0.04956    0.06665    0.08508
  S    3.73271    3.31038    4.79434    0.04876    0.08067    0.09672
  S    1.66880   -0.02741   -3.36032    0.06600    0.07779   -0.08460
  S    1.49707   -2.51956    1.29480   -0.05417    0.04012   -0.03663
  S   -1.71223   -2.68572   -4.25839    0.12661   -0.05527    0.03023
  S    0.10686    4.71466   -2.19958    0.00922    0.04385   -0.07734
  S   -0.28517    0.92540    4.44318   -0.00982   -0.03273    0.06954
  S   -0.65487   -4.96769   -1.55057    0.01970    0.16665   -0.15322
  S    1.75476   -0.17050   -0.18064   -0.03901    0.04242   -0.06349
  S    1.21823   -4.59136   -0.86016    0.03920    0.03479    0.02753
  S   -1.52884   -3.15378    1.09106    0.02543    0.04615   -0.03433
  S    2.40438   -2.97787    4.20914    0.03695    0.03063   -0.04855
  S    0.32441   -4.12356   -2.39503    0.07548    0.03722   -0.08125
  S   -3.88724   -1.38399    0.76691    0.01864    0.03331   -0.04224
  S    2.75767   -2.11621   -1.70358   -0.06205    0.09687   -0.09928
  S    3.27391   -1.68521   -3.11799   -0.01270    0.09173    0.08379
  S    2.64871    1.99075   -3.78857    0.03716   -0.02323    0.05485
  S    4.43051    4.16273    3.61917   -0.05929    0.05873    0.10961
  S   -2.02712    4.04932    4.09643    0.07480   -0.10037    0.01524
  S   -3.37243   -2.26089    3.64579   -0.00152   -0.00727    0.06979
  S   -0.04023   -2.08947   -3.19579    0.03684    0.04551   -0.07219
  S    1.03109   -0.07578    3.38134    0.04485   -0.06436   -0.05561
  S   -0.01475   -3.78741   -3.61762   -0.02791   -0.03504    0.08638
  S    4.08485    1.22095    3.36828    0.06363   -0.00079   -0.03301
  S   -1.05673    1.58831    1.08883   -0.04822   -0.06975   -0.08549
  S   -3.92152    1.47207   -1.36402   -0.04235   -0.03372   -0.08177
  S   -0.72672    4.34495    0.83570   -0.04691    0.03175    0.05236
  S   -0.12573   -3.42728    3.83037    0.02513    0.00354   -0.05843
  S    0.57561   -0.73801    3.29939   -0.02112   -0.05113   -0.03480
  S    2.29360    1.38654    4.84845   -0.03235    0.07951   -0.07279
  S   -0.89212   -4.94591    2.83282    0.05488   -0.04126   -0.07707
  S    3.65535    2.21006   -4.50838   -0.01018    0.09729    0.04158
  S   -2.89117   -0.26106    3.65181   -0.08122   -0.08009   -0.02342
  S   -1.98237    1.57120    3.09095   -0.07366   -0.08970   -0.08932
  S   -0.42284    2.80868    1.92076   -0.01149   -0.07618    0.01793
  S    0.78635    0.29899    0.95045   -0.02762   -0.03914    0.07774
  S   -0.23415   -3.30180    1.09729    0.00515    0.02379    0.01924
  S   -2.66344    3.29808   -4.29910   -0.08023    0.18475   -0.06607
  S   -0.18267   -2.74509    3.26769   -0.04183   -0.02856    0.07566
  S   -1.55749    3.14909    1.59146   -0.09273   -0.04851    0.05565
  S    1.25964    3.36104   -1.91843   -0.05580   -0.06040    0.02249
  S   -3.90267    1.74605    2.82262    0.04389   -0.05993   -0.01976
  S   -1.84342   -0.65991   -2.69004   -0.02285    0.00657   -0.06906
  S    0.55398   -4.85421   -1.19785   -0.12357   -0.03892    0.04748
  S   -2.39555    1.49659    0.52316    0.08392    0.03720    0.06196
  S    1.97848   -1.88050    1.45889   -0.09880    0.00659    0.06878
  S    1.48447    1.42693    0.18515   -0.01986   -0.02757    0.04377
  S    3.01897    1.77812   -3.47124   -0.09342   -0.08729    0.03714
  S   -3.12384    1.18958    2.00301    0.01357   -0.09977   -0.09886
  S   -1.94761   -2.38430    1.55368    0.07151   -0.06377   -0.03173
  S    1.67341    3.79009    1.53305   -0.03735    0.07700   -0.06275
  S   -3.42861    0.03461    3.28957    0.03513    0.08083   -0.06178
  S   -1.05479    2.06067    3.68924    0.00948    0.04779    0.08650
  S   -2.66881    4.26576    0.51443    0.08668   -0.00112    0.01051
  S    4.39129    2.99646    3.14139    0.01890    0.03144    0.09906
  S    4.35852   -1.75459    3.74309    0.01783    0.02755    0.05186
  S    2.75421    2.94910   -2.37215    0.02088   -0.00589   -0.06661
  S    2.95490    3.65086    3.73021    0.03288   -0.01750    0.02240
  S    0.96899    1.45601    0.38557   -0.07033    0.01580   -0.09341
  S    2.00910    0.18151    3.32609    0.00301   -0.07747   -0.00204
  S    0.10349   -4.51500    3.14351   -0.02307    0.02753   -0.00958
  S   -3.56018   -0.86922   -2.52967   -0.01865   -0.09651    0.04352
  S    0.73721    3.12947    0.82682   -0.01065   -0.00453    0.09903
  S   -4.41277   -4.25740    1.40766    0.01946   -0.05548   -0.05604
  S    1.30243    4.23513    2.37939   -0.00743   -0.01229    0.07012
  S    4.52662    4.48911    3.99086    0.05340   -0.03329    0.00735
  S   -1.80864   -0.22449    4.49820   -0.00677    0.17686    0.09346
  S   -3.16235   -0.41961    2.80224    0.05329    0.08096   -0.04848
  S    2.61612    4.63505   -1.68154   -0.01952    0.11216    0.11089
  S    1.22167   -3.08972   -0.22039   -0.02798    0.03078    0.08330
  S   -2.89308    1.06542    3.65434   -0.07804   -0.02529   -0.06020
  S    1.46520    0.92692    1.76554    0.01927   -0.08823    0.01217
  S    0.63617   -2.57374   -4.81089   -0.03123   -0.09819    0.08474
  S    1.01427    2.70686    3.87197    0.08665   -0.06539   -0.01040
  S   -0.12279    2.95231    1.39009    0.09314   -0.06893   -0.04142
  S    3.82204   -1.33972    3.99431    0.04953   -0.00484   -0.04540
  S    4.46640   -3.77674    3.65679    0.02464    0.04373    0.08491
  S   -3.15934   -2.17716   -3.32835   -0.05940    0.02523   -0.06475
  S   -3.73331   -2.72448    4.46925   -0.09723   -0.06784   -0.07600
  S   -0.38152    1.48545    4.15221   -0.07983    0.02285   -0.08589
  S   -1.06254   -0.03569   -0.63415   -0.04136   -0.05119    0.08248
  S    0.66164   -3.09291   -4.65284   -0.01363    0.06278    0.05068
  S   -1.43617    4.97970   -4.64334    0.00471   -0.05981    0.03236
  S    4.99787   -1.72384    3.89343    0.02934   -0.03170   -0.08997
  S    2.66701    3.03330    1.98713    0.03638    0.08084   -0.03741
  S    2.52479   -2.02067    3.09371   -0.06219    0.01822   -0.08931
  S   -3.98546   -3.42725   -2.55851   -0.07277    0.01782   -0.08839
  S    3.89553    4.45502   -4.43978    0.08504   -0.00619   -0.04861
  S    0.87011   -3.31163    0.84585   -0.00473    0.06311    0.08521
  S    0.26523    0.82250    2.29398   -0.05495   -0.04717    0.02672
  S    0.38175   -4.83349    4.31518   -0.03049   -0.05886    0.00453
  S   -0.99015   -1.92832    1.79904    0.02903   -0.01133   -0.04620
  S    2.03186   -1.67108   -2.85476    0.05184   -0.04838    0.03671
  S   -4.83823    3.45123    3.52411    0.02015   -0.03570    0.03359
  S    0.26830    3.48000   -2.49790   -0.04875   -0.08535    0.00288
  S    3.89813    1.11411    0.31033    0.06427    0.09179    0.04735
  S   -1.56041   -1.40058   -4.56085   -0.09523   -0.09898   -0.00255
  S   -2.07114    2.08262    3.20146    0.00148   -0.00651   -0.08435
  S   -3.09016   -0.16352    4.23381   -0.09132   -0.08312   -0.05103
  S    2.11355    1.11241   -4.07142    0.09231    0.07349   -0.06678
  S   -0.24053    2.57282    2.77505   -0.09860    0.01572    0.04729
  S    2.43727    4.22572   -4.03596    0.05753    0.08929   -0.07970
  S   -2.25103   -2.60679    3.09743   -0.08099    0.04935   -0.04456
  S   -3.26699    4.37714    2.60862   -0.08066    0.09622    0.06905
  S   -1.58460    1.92463   -0.43486   -0.01312    0.03081   -0.03520
  S    1.00492   -3.70024   -4.18735   -0.02440   -0.07261    0.03198
  S   -3.85541    3.80683    0.82450   -0.05783    0.03367    0.00578
  S   -1.87657    4.43222    2.68206   -0.07558   -0.09235    0.00299
  S   -1.00700   -2.88435   -0.47350   -0.06797   -0.03835   -0.01325
  S   -4.94565    1.49787   -3.73778   -0.00761   -0.08316    0.05605
  S    2.85932    1.84677    4.10227    0.07344   -0.08747   -0.09056
  S    0.27075   -3.22867    4.27866   -0.07810   -0.02240    0.01924
  S   -1.38409    2.00340    0.39413   -0.01868    0.06449    0.01554
  S    4.21551   -2.78274    2.89244   -0.02516   -0.02362   -0.08050
  S    3.07959   -1.12677    2.47277    0.08684    0.06985    0.06629
  S    2.14432    1.35204    0.16139    0.02493    0.00048    0.01576
  S    1.71841   -4.70524    2.55945    0.01994   -0.07220   -0.07121
  S   -3.04102    2.77410    3.44281    0.04706   -0.06319    0.03334
  S   -1.87010   -3.94424    3.88433   -0.07955   -0.00404   -0.04594
  S   -3.00276   -3.12264    1.57643    0.08940   -0.05562    0.00138
  S    2.78463    4.36349   -3.57881   -0.04108    0.01220    0.02890
  S    3.73414   -2.67152    1.73996    0.02587    0.06651    0.06260
  S    2.73301   -4.71547    0.90407    0.02352    0.05275    0.05489
  S   -2.15711   -4.23247    3.80009   -0.06546   -0.06420   -0.02804
  S   -0.56957   -1.21290    1.47522   -0.07986   -0.03486    0.07389
  S    1.07600   -3.95826    3.05789    0.04994   -0.02024   -0.02664
  S   -1.05761   -2.27811    0.99644   -0.08635    0.08031   -0.01356
  S    3.81232    1.74850   -0.39348   -0.00567   -0.04151   -0.05512
  S   -2.53929    0.76721   -1.98831   -0.07478    0.04989   -0.00397
  S   -0.14134   -3.07514    3.58866   -0.07332   -0.04137   -0.06308
  S   -4.97172    4.00772   -2.11248    0.06172    0.03010    0.03751
  S   -3.24587   -4.55271    4.59716    0.05501   -0.07741    0.07225
  S   -2.92743    4.94196    0.36115    0.03358   -0.00683    0.06571
  S    3.92324    2.11906   -0.94733   -0.06130    0.06760   -0.06906
  S    1.73648   -1.76148   -1.52804    0.00650   -0.00855    0.02807
  S    3.97055    3.44113   -2.64565   -0.01657    0.04789   -0.00463
  S   -4.07506   -0.36558    4.41243    0.07615    0.02802   -0.04672
  S   -2.85259   -2.21995   -0.51577   -0.00835   -0.03948    0.01731
