56   
#W=white, A=yellow, C=cyan, P=purple
W 4.430254 15.561103 -5.184038
A 7.118373 17.400172 -7.348866
A 9.017132 14.834514 -5.470509
A 10.496271 14.591387 -1.446028
A 11.544399 11.567378 0.609957
A 13.138595 15.092386 2.247147
A 14.642132 11.484238 2.132064
A 16.722335 10.420138 5.413615
A 18.799705 11.224533 2.514718
C 22.602578 11.205682 3.366705
C 20.708298 11.425520 0.762141
A 19.416617 9.584553 -2.131296
A 20.468817 7.725646 -4.799826
A 17.399243 9.293662 -6.474833
A 15.317133 6.035837 -6.141017
A 11.785588 6.626127 -3.947863
A 8.738810 4.077055 -3.972016
A 8.582952 6.693621 -0.981761
A 10.239505 2.873321 -0.201992
W 11.117980 1.634788 3.109366
W 11.207744 3.031891 6.530320
W 14.718848 0.913780 7.896157
P 15.438205 4.051730 9.120654
P 18.196604 0.862953 9.764831
P 20.192335 0.529157 13.513345
P 18.391420 2.536345 16.067873
P 21.080089 5.279256 15.941839
P 18.962453 9.062462 15.244759
P 15.801684 9.259514 16.515274
P 14.458213 13.291717 17.478634
P 13.512137 10.377241 15.648014
P 10.138465 11.415004 17.745839
P 8.091122 11.539128 20.812640
P 4.556061 11.667542 19.642621
P 1.937191 11.768701 22.235522
P -2.207702 11.885447 23.342993
W 0.606316 9.353465 23.328424
W 2.715500 7.327316 25.162176
W 4.203283 7.002507 21.214284
W 5.985353 5.372538 24.286211
A 7.827731 2.995676 26.424891
A 9.258153 2.663702 23.278362
A 11.257007 0.980315 26.156105
A 11.873446 1.743541 22.182044
A 15.534501 1.126776 22.878405
A 19.372392 0.852735 22.105120
A 19.097497 -2.637193 20.750097
C 20.605533 -5.997370 21.831676
C 18.146656 -8.190637 19.799921
A 18.748279 -8.095667 23.791142
A 21.941336 -10.924417 23.647187
A 18.369585 -12.305584 24.434373
A 15.195617 -14.585332 24.335705
A 12.592130 -17.384740 24.190280
A 15.271977 -19.777528 23.002565
W 16.987667 -18.273674 20.085128
