56   
#W=white, A=yellow, C=cyan, P=purple
W 13.013283 29.618689 25.153071
A 14.067164 30.237600 21.623141
A 11.981886 28.768454 18.720882
A 9.793085 28.749071 15.579950
A 11.053721 30.192380 12.447480
A 8.169123 27.944153 11.726726
A 6.180464 26.796942 8.652179
A 4.126740 25.107117 6.100240
A 0.488149 24.901761 7.477166
C -3.427495 25.321440 7.855998
C -5.002755 26.964572 10.896613
A -1.825243 28.658176 10.274399
A 1.877477 29.465773 9.817236
A 4.579760 31.730646 11.060947
A 8.051116 33.152266 10.862969
A 7.416560 34.049975 14.547071
A 10.883120 33.423419 16.161188
A 10.588352 33.234953 20.061065
A 9.201088 30.925226 22.478585
W 8.057378 28.146837 25.110567
W 10.259069 27.873044 28.473413
W 6.939306 27.604050 30.223981
P 5.037757 25.589837 32.902012
P 3.906422 26.078195 29.313279
P 3.269962 27.343277 25.901923
P 4.639313 24.148318 27.413265
P 1.528559 24.690546 25.559167
P 4.257179 22.141461 26.107025
P 7.496995 21.990658 23.936835
P 3.907588 20.447826 23.320517
P 0.054629 20.655218 23.094608
P 3.314576 19.326887 22.078885
P -0.484668 18.355923 21.699600
P 1.907578 19.259777 18.895516
P 4.658382 17.101242 18.098387
P 2.934655 14.592043 20.186289
W 3.220660 15.234195 16.545402
W 0.501622 17.171972 14.819413
W 3.794231 18.162068 13.336949
W 2.701692 15.450855 10.974619
A 5.612644 17.036930 9.280752
A 8.435302 16.946440 6.641348
A 11.359474 19.505785 7.492176
A 13.555193 20.118841 10.561628
A 15.597783 21.657040 13.277326
A 16.241656 22.192007 16.944522
A 16.145233 23.006451 20.740272
C 14.506768 20.742005 23.263141
C 12.921409 22.378832 20.378747
A 11.661456 24.047245 17.167730
A 14.078505 26.028422 14.984590
A 12.902914 25.311452 11.389835
A 10.053731 23.777980 9.330053
A 6.751195 21.700527 8.724439
A 4.976100 20.434575 5.563601
W 1.768960 20.199090 7.694954
