60

B  -14.00000  0.00000  0.00000  -1.23129  0.00000  0.00000
B  -12.00000  0.00000  0.10000  1.82045   0.00000  0.00000
B  -10.00000  0.00000  0.00000  -1.19886  0.00000  0.00000
B  -8.00000   0.00000  0.00000  1.24603   0.00000  0.00000
B  -6.00000   0.00000  0.00000  -1.11765  0.00000  0.00000
B  -4.00000   0.00000  0.00000  1.29224   0.00000  0.00000
B  -2.00000   0.10000  0.00000  0.00000   0.00000  0.00000
B  0.00000    0.00000  0.00000  1.63048   0.00000  0.00000
B  2.00000    0.00000  0.00000  -1.33405  0.00000  0.00000
B  4.00000    0.00000  0.10000  1.74556   0.00000  0.00000
B  6.00000    0.00000  0.00000  -1.22485  0.00000  0.00000
B  8.00000    0.10000  0.00000  1.93825   0.00000  0.00000
B  10.0000    0.0000   0.0000   -1.2313   0.0000   0.0000 
B  12.0000    0.0000   0.1000   1.8204    0.0000   0.0000 
B  14.0000    0.0000   0.0000   -1.1989   0.0000   0.0000 
B  16.0000    0.0000   0.0000   1.2460    0.0000   0.0000 
B  18.0000    0.0000   0.0000   -1.1177   0.0000   0.0000 
B  20.0000    0.0000   0.0000   1.2922    0.0000   0.0000 
B  22.0000    0.1000   0.0000   0.0000    0.0000   0.0000 
B  24.0000    0.0000   0.0000   1.6305    0.0000   0.0000 
B  26.0000    0.0000   0.0000   -1.3340   0.0000   0.0000 
B  28.0000    0.0000   0.1000   1.7456    0.0000   0.0000 
B  30.0000    0.0000   0.0000   -1.2248   0.0000   0.0000 
B  32.0000    0.1000   0.0000   1.9383    0.0000   0.0000 
B  34.0000    0.0000   0.0000   -1.2313   0.0000   0.0000 
B  36.0000    0.0000   0.1000   1.8204    0.0000   0.0000 
B  38.0000    0.0000   0.0000   -1.1989   0.0000   0.0000 
B  40.0000    0.0000   0.0000   1.2460    0.0000   0.0000 
B  42.0000    0.0000   0.0000   -1.1177   0.0000   0.0000 
B  44.0000    0.0000   0.0000   1.2922    0.0000   0.0000 
B  46.0000    0.1000   0.0000   0.0000    0.0000   0.0000 
B  48.0000    0.0000   0.0000   1.6305    0.0000   0.0000 
B  50.0000    0.0000   0.0000   -1.3340   0.0000   0.0000 
B  52.0000    0.0000   0.1000   1.7456    0.0000   0.0000 
B  54.0000    0.0000   0.0000   -1.2248   0.0000   0.0000 
B  56.0000    0.1000   0.0000   1.9383    0.0000   0.0000 
B  58.0000    0.0000   0.0000   -1.2313   0.0000   0.0000 
B  60.0000    0.0000   0.1000   1.8204    0.0000   0.0000 
B  62.0000    0.0000   0.0000   -1.1989   0.0000   0.0000 
B  64.0000    0.0000   0.0000   1.2460    0.0000   0.0000 
B  66.0000    0.0000   0.0000   -1.1177   0.0000   0.0000 
B  68.0000    0.0000   0.0000   1.2922    0.0000   0.0000 
B  70.0000    0.1000   0.0000   0.0000    0.0000   0.0000 
B  72.0000    0.0000   0.0000   1.6305    0.0000   0.0000 
B  74.0000    0.0000   0.0000   -1.3340   0.0000   0.0000 
B  76.0000    0.0000   0.1000   1.7456    0.0000   0.0000 
B  78.0000    0.0000   0.0000   -1.2248   0.0000   0.0000 
B  80.0000    0.1000   0.0000   1.9383    0.0000   0.0000 
B  82.0000    0.0000   0.0000   -1.2313   0.0000   0.0000 
B  84.0000    0.0000   0.1000   1.8204    0.0000   0.0000 
B  86.0000    0.0000   0.0000   -1.1989   0.0000   0.0000 
B  88.0000    0.0000   0.0000   1.2460    0.0000   0.0000 
B  90.0000    0.0000   0.0000   -1.1177   0.0000   0.0000 
B  92.0000    0.0000   0.0000   1.2922    0.0000   0.0000 
B  94.0000    0.1000   0.0000   0.0000    0.0000   0.0000 
B  96.0000    0.0000   0.0000   1.6305    0.0000   0.0000 
B  98.0000    0.0000   0.0000   -1.3340   0.0000   0.0000 
B  100.0000   0.0000   0.1000   1.7456    0.0000   0.0000 
B  102.0000   0.0000   0.0000   -1.2248   0.0000   0.0000 
B  104.0000   0.1000   0.0000   1.9383    0.0000   0.0000 
